20
0 2
  O        1.686220818     0.123859613    -0.338994035
  C        0.743936998     0.558506627     0.573879833
  C        3.023007064    -0.109894158    -0.136098762
  H       -2.932693430     0.096371280     0.950366589
 Si       -2.155945662    -0.444157076    -0.047883063
  C       -0.549860705     0.092963339     0.267396622
  O        1.044680310     1.305205841     1.505537191
  H       -2.578755518    -0.009439314    -1.283372565
  H       -2.212349102    -1.818803432    -0.026297228
  O        3.676651411     0.900486413     0.500117076
  C        4.237634707     1.970144125    -0.217208838
  H        5.017904718     1.627534664    -0.940121286
  H        4.718423988     2.641096435     0.532443822
  H        3.474875189     2.556783972    -0.782884165
  C        3.585924797    -1.277218866    -0.539955246
 Si        2.846161310    -2.714989815    -1.264990395
  H        4.671978040    -1.362638747    -0.416697626
  H        1.755510554    -3.138330860    -0.533065947
  H        3.771011594    -3.737542973    -1.306165327
  H        2.432793687    -2.449082408    -2.554472923
20
0 2
 O        1.925834569     0.450721026    -1.243862838
 C        1.925590409     1.402189303    -2.249516325
 C        3.010594124    -0.009136111    -0.540599377
 H        0.309378068    -0.168919477    -5.372425496
Si       -0.142684063     0.816285101    -4.524727533
 C        0.982558758     1.118150956    -3.255914984
 O        2.655956393     2.391609406    -2.191296758
 H       -1.343712146     0.416678528    -3.985372698
 H       -0.271056480     2.003675778    -5.207137771
 O        3.698380519     0.970869140     0.108422041
 C        3.331051386     1.392915771     1.396336874
 H        4.040338352     2.204591870     1.682021266
 H        3.415123417     0.568371492     2.145337021
 H        2.291865075     1.796437539     1.439764487
 C        3.337981921    -1.325944063    -0.538525522
Si        2.660059599    -2.699402079    -1.429677059
 H        4.160493164    -1.620370614     0.124831113
 H        2.066459061    -2.307112354    -2.612445856
 H        1.714445060    -3.342275904    -0.658464602
 H        3.669082401    -3.590431225    -1.728749719
